/*--------------------------------*- C++ -*----------------------------------*\
| =========                 |                                                 |
| \\      /  F ield         | OpenFOAM: The Open Source CFD Toolbox           |
|  \\    /   O peration     | Version:  5.x                                   |
|   \\  /    A nd           | Web:      www.OpenFOAM.org                      |
|    \\/     M anipulation  |                                                 |
\*---------------------------------------------------------------------------*/
FoamFile
{
    version     2.0;
    format      ascii;
    class       volScalarField;
    location    "0";
    object      p_rgh;
}
// * * * * * * * * * * * * * * * * * * * * * * * * * * * * * * * * * * * * * //

dimensions      [1 -1 -2 0 0 0 0];

internalField   uniform 0;

boundaryField
{
    outlet 
    {
        type            fixedFluxPressure;
        value           uniform 0;
    }

    front
    {
        type            empty;
    }

    back
    {
        type            empty;
    }

    ground
    {
        type            fixedFluxPressure;
        gradient        uniform 0;
        value           uniform 0;
    }

    atmosphere
    {
        type            totalPressure;
        rho             rho;
        psi             none;
        gamma           0;
        p0              uniform 0;
        value           uniform 0;
    }

    inlet
    {
        type            fixedFluxPressure;
        gradient        uniform 0;
        value           uniform 0;
    }

    fixedWall
    {
        type            fixedFluxPressure;
        gradient        uniform 0;
        value           uniform 0;
    }

    ramp
    {
        type            fixedFluxPressure;
        gradient        uniform 0;
        value           uniform 0;
    }
}


// ************************************************************************* //
